REMARK  4 active torsions:
REMARK  status: ('A' for Active; 'I' for Inactive)
REMARK    1  A    between atoms: N_1  and  CA_2 
REMARK    2  A    between atoms: CA_2  and  CB_6 
REMARK    3  A    between atoms: CA_2  and  C_3 
REMARK    4  A    between atoms: CB_6  and  CG_7 
ROOT
ATOM      1  CA  PHE A   1       1.458   0.000   0.000  1.00  0.00     0.287 C 
ENDROOT
BRANCH   1   2
ATOM      2  CB  PHE A   1       1.992  -0.760  -1.216  1.00  0.00     0.082 C 
BRANCH   2   3
ATOM      3  CG  PHE A   1       0.916  -1.315  -2.104  1.00  0.00    -0.056 A 
ATOM      4  CD1 PHE A   1      -0.423  -1.124  -1.798  1.00  0.00     0.007 A 
ATOM      5  CE1 PHE A   1      -1.414  -1.634  -2.615  1.00  0.00     0.001 A 
ATOM      6  CZ  PHE A   1      -1.077  -2.342  -3.749  1.00  0.00     0.000 A 
ATOM      7  CE2 PHE A   1       0.252  -2.540  -4.066  1.00  0.00     0.001 A 
ATOM      8  CD2 PHE A   1       1.240  -2.030  -3.247  1.00  0.00     0.007 A 
ENDBRANCH   2   3
ENDBRANCH   1   2
BRANCH   1   9
ATOM      9  C   PHE A   1       2.009   1.420   0.000  1.00  0.00     0.204 C 
ATOM     10  OXT PHE A   1       2.394   1.914  -1.023  1.00  0.00    -0.646 OA
ATOM     11  O   PHE A   1       2.058   2.045   1.023  1.00  0.00    -0.646 OA
ENDBRANCH   1   9
BRANCH   1  12
ATOM     12  N   PHE A   1       0.000   0.000   0.000  1.00  0.00    -0.065 N 
ATOM     13  H1  PHE A   1      -0.334  -0.943   0.000  1.00  0.00     0.275 HD
ATOM     14  H3  PHE A   1      -0.334   0.471  -0.816  1.00  0.00     0.275 HD
ATOM     15  H2  PHE A   1      -0.334   0.471   0.816  1.00  0.00     0.275 HD
ENDBRANCH   1  12
TORSDOF 4
