REMARK  4 active torsions:
REMARK  status: ('A' for Active; 'I' for Inactive)
REMARK    1  A    between atoms: N_1  and  CA_2 
REMARK    2  A    between atoms: CA_2  and  CB_6 
REMARK    3  A    between atoms: CA_2  and  C_3 
REMARK    4  A    between atoms: CB_6  and  CG_7 
ROOT
ATOM      1  CG  TRP A   1       0.912  -1.307  -2.100  1.00  0.00    -0.028 A 
ATOM      2  CD1 TRP A   1      -0.433  -1.190  -1.913  1.00  0.00     0.096 A 
ATOM      3  CD2 TRP A   1       1.082  -2.067  -3.322  1.00  0.00    -0.002 A 
ATOM      4  NE1 TRP A   1      -1.109  -1.823  -2.927  1.00  0.00    -0.365 N 
ATOM      5  CE2 TRP A   1      -0.197  -2.363  -3.799  1.00  0.00     0.042 A 
ATOM      6  CE3 TRP A   1       2.201  -2.511  -4.037  1.00  0.00     0.014 A 
ATOM      7  CZ2 TRP A   1      -0.396  -3.088  -4.963  1.00  0.00     0.030 A 
ATOM      8  CZ3 TRP A   1       2.001  -3.237  -5.205  1.00  0.00     0.001 A 
ATOM      9  CH2 TRP A   1       0.736  -3.517  -5.656  1.00  0.00     0.002 A 
ATOM     10  HE1 TRP A   1      -2.113  -1.882  -3.017  1.00  0.00     0.165 HD
ENDROOT
BRANCH   1  11
ATOM     11  CB  TRP A   1       1.991  -0.758  -1.217  1.00  0.00     0.085 C 
BRANCH  11  12
ATOM     12  CA  TRP A   1       1.458   0.000   0.000  1.00  0.00     0.287 C 
BRANCH  12  13
ATOM     13  C   TRP A   1       2.009   1.420   0.000  1.00  0.00     0.204 C 
ATOM     14  OXT TRP A   1       2.394   1.914  -1.023  1.00  0.00    -0.646 OA
ATOM     15  O   TRP A   1       2.058   2.045   1.023  1.00  0.00    -0.646 OA
ENDBRANCH  12  13
BRANCH  12  16
ATOM     16  N   TRP A   1       0.000   0.000   0.000  1.00  0.00    -0.065 N 
ATOM     17  H1  TRP A   1      -0.334  -0.943   0.000  1.00  0.00     0.275 HD
ATOM     18  H3  TRP A   1      -0.334   0.471  -0.816  1.00  0.00     0.275 HD
ATOM     19  H2  TRP A   1      -0.334   0.471   0.816  1.00  0.00     0.275 HD
ENDBRANCH  12  16
ENDBRANCH  11  12
ENDBRANCH   1  11
TORSDOF 4
