MODEL 1
REMARK VINA RESULT:      -7.2      0.000      0.000
REMARK  4 active torsions:
REMARK  status: ('A' for Active; 'I' for Inactive)
REMARK    1  A    between atoms: N_1  and  CA_2 
REMARK    2  A    between atoms: CA_2  and  CB_6 
REMARK    3  A    between atoms: CA_2  and  C_3 
REMARK    4  A    between atoms: CB_6  and  CG_7 
ROOT
ATOM      1  CG  TRP A   1       1.798  34.943  -8.680  1.00  0.00    -0.028 A 
ATOM      2  CD1 TRP A   1       2.330  35.719  -7.694  1.00  0.00     0.096 A 
ATOM      3  CD2 TRP A   1       0.697  35.703  -9.237  1.00  0.00    -0.002 A 
ATOM      4  NE1 TRP A   1       1.640  36.902  -7.597  1.00  0.00    -0.365 N 
ATOM      5  CE2 TRP A   1       0.638  36.910  -8.535  1.00  0.00     0.042 A 
ATOM      6  CE3 TRP A   1      -0.228  35.458 -10.259  1.00  0.00     0.014 A 
ATOM      7  CZ2 TRP A   1      -0.312  37.878  -8.819  1.00  0.00     0.030 A 
ATOM      8  CZ3 TRP A   1      -1.180  36.430 -10.544  1.00  0.00     0.001 A 
ATOM      9  CH2 TRP A   1      -1.220  37.608  -9.843  1.00  0.00     0.002 A 
ATOM     10  HE1 TRP A   1       1.836  37.646  -6.942  1.00  0.00     0.165 HD
ENDROOT
BRANCH   1  11
ATOM     11  CB  TRP A   1       2.262  33.582  -9.098  1.00  0.00     0.085 C 
BRANCH  11  12
ATOM     12  CA  TRP A   1       1.801  32.464  -8.161  1.00  0.00     0.287 C 
BRANCH  12  13
ATOM     13  C   TRP A   1       2.646  32.478  -6.894  1.00  0.00     0.204 C 
ATOM     14  OXT TRP A   1       3.838  32.358  -6.967  1.00  0.00    -0.646 OA
ATOM     15  O   TRP A   1       2.121  32.609  -5.823  1.00  0.00    -0.646 OA
ENDBRANCH  12  13
BRANCH  12  16
ATOM     16  N   TRP A   1       0.384  32.613  -7.851  1.00  0.00    -0.065 N 
ATOM     17  H1  TRP A   1      -0.141  32.658  -8.701  1.00  0.00     0.275 HD
ATOM     18  H3  TRP A   1       0.243  33.454  -7.329  1.00  0.00     0.275 HD
ATOM     19  H2  TRP A   1       0.076  31.830  -7.311  1.00  0.00     0.275 HD
ENDBRANCH  12  16
ENDBRANCH  11  12
ENDBRANCH   1  11
TORSDOF 4
ENDMDL
MODEL 2
REMARK VINA RESULT:      -7.2      2.049      2.713
REMARK  4 active torsions:
REMARK  status: ('A' for Active; 'I' for Inactive)
REMARK    1  A    between atoms: N_1  and  CA_2 
REMARK    2  A    between atoms: CA_2  and  CB_6 
REMARK    3  A    between atoms: CA_2  and  C_3 
REMARK    4  A    between atoms: CB_6  and  CG_7 
ROOT
ATOM      1  CG  TRP A   1       0.900  32.682  -8.899  1.00  0.00    -0.028 A 
ATOM      2  CD1 TRP A   1      -0.377  32.268  -8.660  1.00  0.00     0.096 A 
ATOM      3  CD2 TRP A   1       0.786  33.936  -9.616  1.00  0.00    -0.002 A 
ATOM      4  NE1 TRP A   1      -1.273  33.171  -9.177  1.00  0.00    -0.365 N 
ATOM      5  CE2 TRP A   1      -0.578  34.199  -9.763  1.00  0.00     0.042 A 
ATOM      6  CE3 TRP A   1       1.719  34.842 -10.135  1.00  0.00     0.014 A 
ATOM      7  CZ2 TRP A   1      -1.041  35.333 -10.412  1.00  0.00     0.030 A 
ATOM      8  CZ3 TRP A   1       1.255  35.979 -10.784  1.00  0.00     0.001 A 
ATOM      9  CH2 TRP A   1      -0.089  36.219 -10.918  1.00  0.00     0.002 A 
ATOM     10  HE1 TRP A   1      -2.278  33.092  -9.133  1.00  0.00     0.165 HD
ENDROOT
BRANCH   1  11
ATOM     11  CB  TRP A   1       2.161  31.978  -8.500  1.00  0.00     0.085 C 
BRANCH  11  12
ATOM     12  CA  TRP A   1       2.591  32.266  -7.060  1.00  0.00     0.287 C 
BRANCH  12  13
ATOM     13  C   TRP A   1       4.027  32.776  -7.048  1.00  0.00     0.204 C 
ATOM     14  OXT TRP A   1       4.331  33.727  -7.712  1.00  0.00    -0.646 OA
ATOM     15  O   TRP A   1       4.853  32.226  -6.374  1.00  0.00    -0.646 OA
ENDBRANCH  12  13
BRANCH  12  16
ATOM     16  N   TRP A   1       1.685  33.227  -6.442  1.00  0.00    -0.065 N 
ATOM     17  H1  TRP A   1       0.792  32.800  -6.301  1.00  0.00     0.275 HD
ATOM     18  H3  TRP A   1       1.584  34.022  -7.039  1.00  0.00     0.275 HD
ATOM     19  H2  TRP A   1       2.058  33.517  -5.561  1.00  0.00     0.275 HD
ENDBRANCH  12  16
ENDBRANCH  11  12
ENDBRANCH   1  11
TORSDOF 4
ENDMDL
MODEL 3
REMARK VINA RESULT:      -7.1      1.253      2.395
REMARK  4 active torsions:
REMARK  status: ('A' for Active; 'I' for Inactive)
REMARK    1  A    between atoms: N_1  and  CA_2 
REMARK    2  A    between atoms: CA_2  and  CB_6 
REMARK    3  A    between atoms: CA_2  and  C_3 
REMARK    4  A    between atoms: CB_6  and  CG_7 
ROOT
ATOM      1  CG  TRP A   1       1.231  34.483  -9.367  1.00  0.00    -0.028 A 
ATOM      2  CD1 TRP A   1       0.077  34.705 -10.057  1.00  0.00     0.096 A 
ATOM      3  CD2 TRP A   1       1.543  35.730  -8.697  1.00  0.00    -0.002 A 
ATOM      4  NE1 TRP A   1      -0.349  35.996  -9.865  1.00  0.00    -0.365 N 
ATOM      5  CE2 TRP A   1       0.536  36.637  -9.034  1.00  0.00     0.042 A 
ATOM      6  CE3 TRP A   1       2.581  36.139  -7.851  1.00  0.00     0.014 A 
ATOM      7  CZ2 TRP A   1       0.531  37.937  -8.556  1.00  0.00     0.030 A 
ATOM      8  CZ3 TRP A   1       2.575  37.444  -7.371  1.00  0.00     0.001 A 
ATOM      9  CH2 TRP A   1       1.575  38.319  -7.714  1.00  0.00     0.002 A 
ATOM     10  HE1 TRP A   1      -1.178  36.409 -10.269  1.00  0.00     0.165 HD
ENDROOT
BRANCH   1  11
ATOM     11  CB  TRP A   1       2.015  33.207  -9.317  1.00  0.00     0.085 C 
BRANCH  11  12
ATOM     12  CA  TRP A   1       1.605  32.284  -8.168  1.00  0.00     0.287 C 
BRANCH  12  13
ATOM     13  C   TRP A   1       2.521  32.516  -6.974  1.00  0.00     0.204 C 
ATOM     14  OXT TRP A   1       2.052  32.711  -5.887  1.00  0.00    -0.646 OA
ATOM     15  O   TRP A   1       3.712  32.503  -7.119  1.00  0.00    -0.646 OA
ENDBRANCH  12  13
BRANCH  12  16
ATOM     16  N   TRP A   1       0.208  32.504  -7.813  1.00  0.00    -0.065 N 
ATOM     17  H1  TRP A   1      -0.069  33.421  -8.101  1.00  0.00     0.275 HD
ATOM     18  H3  TRP A   1       0.099  32.419  -6.823  1.00  0.00     0.275 HD
ATOM     19  H2  TRP A   1      -0.364  31.824  -8.270  1.00  0.00     0.275 HD
ENDBRANCH  12  16
ENDBRANCH  11  12
ENDBRANCH   1  11
TORSDOF 4
ENDMDL
MODEL 4
REMARK VINA RESULT:      -7.1      3.537      4.896
REMARK  4 active torsions:
REMARK  status: ('A' for Active; 'I' for Inactive)
REMARK    1  A    between atoms: N_1  and  CA_2 
REMARK    2  A    between atoms: CA_2  and  CB_6 
REMARK    3  A    between atoms: CA_2  and  C_3 
REMARK    4  A    between atoms: CB_6  and  CG_7 
ROOT
ATOM      1  CG  TRP A   1       3.546  34.447  -8.700  1.00  0.00    -0.028 A 
ATOM      2  CD1 TRP A   1       2.739  35.357  -8.085  1.00  0.00     0.096 A 
ATOM      3  CD2 TRP A   1       2.691  33.336  -9.066  1.00  0.00    -0.002 A 
ATOM      4  NE1 TRP A   1       1.448  34.891  -8.041  1.00  0.00    -0.365 N 
ATOM      5  CE2 TRP A   1       1.401  33.656  -8.638  1.00  0.00     0.042 A 
ATOM      6  CE3 TRP A   1       2.916  32.114  -9.712  1.00  0.00     0.014 A 
ATOM      7  CZ2 TRP A   1       0.329  32.799  -8.832  1.00  0.00     0.030 A 
ATOM      8  CZ3 TRP A   1       1.841  31.255  -9.908  1.00  0.00     0.001 A 
ATOM      9  CH2 TRP A   1       0.582  31.590  -9.480  1.00  0.00     0.002 A 
ATOM     10  HE1 TRP A   1       0.661  35.377  -7.634  1.00  0.00     0.165 HD
ENDROOT
BRANCH   1  11
ATOM     11  CB  TRP A   1       5.018  34.577  -8.946  1.00  0.00     0.085 C 
BRANCH  11  12
ATOM     12  CA  TRP A   1       5.385  35.744  -9.863  1.00  0.00     0.287 C 
BRANCH  12  13
ATOM     13  C   TRP A   1       6.784  35.533 -10.426  1.00  0.00     0.204 C 
ATOM     14  OXT TRP A   1       7.739  35.616  -9.705  1.00  0.00    -0.646 OA
ATOM     15  O   TRP A   1       6.932  35.284 -11.590  1.00  0.00    -0.646 OA
ENDBRANCH  12  13
BRANCH  12  16
ATOM     16  N   TRP A   1       4.401  35.878 -10.932  1.00  0.00    -0.065 N 
ATOM     17  H1  TRP A   1       4.571  35.183 -11.631  1.00  0.00     0.275 HD
ATOM     18  H3  TRP A   1       4.476  36.787 -11.342  1.00  0.00     0.275 HD
ATOM     19  H2  TRP A   1       3.483  35.756 -10.557  1.00  0.00     0.275 HD
ENDBRANCH  12  16
ENDBRANCH  11  12
ENDBRANCH   1  11
TORSDOF 4
ENDMDL
MODEL 5
REMARK VINA RESULT:      -6.9      3.471      5.186
REMARK  4 active torsions:
REMARK  status: ('A' for Active; 'I' for Inactive)
REMARK    1  A    between atoms: N_1  and  CA_2 
REMARK    2  A    between atoms: CA_2  and  CB_6 
REMARK    3  A    between atoms: CA_2  and  C_3 
REMARK    4  A    between atoms: CB_6  and  CG_7 
ROOT
ATOM      1  CG  TRP A   1       0.203  35.345 -10.294  1.00  0.00    -0.028 A 
ATOM      2  CD1 TRP A   1       1.542  35.242 -10.065  1.00  0.00     0.096 A 
ATOM      3  CD2 TRP A   1      -0.384  34.117  -9.797  1.00  0.00    -0.002 A 
ATOM      4  NE1 TRP A   1       1.829  34.041  -9.464  1.00  0.00    -0.365 N 
ATOM      5  CE2 TRP A   1       0.661  33.341  -9.291  1.00  0.00     0.042 A 
ATOM      6  CE3 TRP A   1      -1.694  33.624  -9.741  1.00  0.00     0.014 A 
ATOM      7  CZ2 TRP A   1       0.444  32.091  -8.734  1.00  0.00     0.030 A 
ATOM      8  CZ3 TRP A   1      -1.912  32.371  -9.181  1.00  0.00     0.001 A 
ATOM      9  CH2 TRP A   1      -0.870  31.625  -8.690  1.00  0.00     0.002 A 
ATOM     10  HE1 TRP A   1       2.749  33.723  -9.194  1.00  0.00     0.165 HD
ENDROOT
BRANCH   1  11
ATOM     11  CB  TRP A   1      -0.512  36.497 -10.932  1.00  0.00     0.085 C 
BRANCH  11  12
ATOM     12  CA  TRP A   1      -1.239  37.395  -9.929  1.00  0.00     0.287 C 
BRANCH  12  13
ATOM     13  C   TRP A   1      -0.271  38.432  -9.375  1.00  0.00     0.204 C 
ATOM     14  OXT TRP A   1      -0.068  39.447  -9.981  1.00  0.00    -0.646 OA
ATOM     15  O   TRP A   1       0.288  38.234  -8.332  1.00  0.00    -0.646 OA
ENDBRANCH  12  13
BRANCH  12  16
ATOM     16  N   TRP A   1      -2.390  38.032 -10.559  1.00  0.00    -0.065 N 
ATOM     17  H1  TRP A   1      -2.428  38.994 -10.290  1.00  0.00     0.275 HD
ATOM     18  H3  TRP A   1      -3.227  37.571 -10.268  1.00  0.00     0.275 HD
ATOM     19  H2  TRP A   1      -2.304  37.968 -11.553  1.00  0.00     0.275 HD
ENDBRANCH  12  16
ENDBRANCH  11  12
ENDBRANCH   1  11
TORSDOF 4
ENDMDL
MODEL 6
REMARK VINA RESULT:      -6.8      3.194      5.421
REMARK  4 active torsions:
REMARK  status: ('A' for Active; 'I' for Inactive)
REMARK    1  A    between atoms: N_1  and  CA_2 
REMARK    2  A    between atoms: CA_2  and  CB_6 
REMARK    3  A    between atoms: CA_2  and  C_3 
REMARK    4  A    between atoms: CB_6  and  CG_7 
ROOT
ATOM      1  CG  TRP A   1      -0.254  35.057 -10.278  1.00  0.00    -0.028 A 
ATOM      2  CD1 TRP A   1      -1.200  34.122  -9.984  1.00  0.00     0.096 A 
ATOM      3  CD2 TRP A   1       1.019  34.465  -9.920  1.00  0.00    -0.002 A 
ATOM      4  NE1 TRP A   1      -0.608  32.995  -9.468  1.00  0.00    -0.365 N 
ATOM      5  CE2 TRP A   1       0.750  33.188  -9.425  1.00  0.00     0.042 A 
ATOM      6  CE3 TRP A   1       2.345  34.912  -9.982  1.00  0.00     0.014 A 
ATOM      7  CZ2 TRP A   1       1.758  32.343  -8.987  1.00  0.00     0.030 A 
ATOM      8  CZ3 TRP A   1       3.355  34.065  -9.544  1.00  0.00     0.001 A 
ATOM      9  CH2 TRP A   1       3.069  32.813  -9.061  1.00  0.00     0.002 A 
ATOM     10  HE1 TRP A   1      -1.092  32.161  -9.170  1.00  0.00     0.165 HD
ENDROOT
BRANCH   1  11
ATOM     11  CB  TRP A   1      -0.489  36.420 -10.855  1.00  0.00     0.085 C 
BRANCH  11  12
ATOM     12  CA  TRP A   1      -1.094  37.410  -9.858  1.00  0.00     0.287 C 
BRANCH  12  13
ATOM     13  C   TRP A   1      -0.043  38.435  -9.453  1.00  0.00     0.204 C 
ATOM     14  OXT TRP A   1       0.810  38.140  -8.663  1.00  0.00    -0.646 OA
ATOM     15  O   TRP A   1      -0.068  39.538  -9.924  1.00  0.00    -0.646 OA
ENDBRANCH  12  13
BRANCH  12  16
ATOM     16  N   TRP A   1      -2.268  38.056 -10.433  1.00  0.00    -0.065 N 
ATOM     17  H1  TRP A   1      -2.041  38.419 -11.336  1.00  0.00     0.275 HD
ATOM     18  H3  TRP A   1      -2.562  38.804  -9.838  1.00  0.00     0.275 HD
ATOM     19  H2  TRP A   1      -3.008  37.390 -10.519  1.00  0.00     0.275 HD
ENDBRANCH  12  16
ENDBRANCH  11  12
ENDBRANCH   1  11
TORSDOF 4
ENDMDL
MODEL 7
REMARK VINA RESULT:      -6.7      2.505      4.252
REMARK  4 active torsions:
REMARK  status: ('A' for Active; 'I' for Inactive)
REMARK    1  A    between atoms: N_1  and  CA_2 
REMARK    2  A    between atoms: CA_2  and  CB_6 
REMARK    3  A    between atoms: CA_2  and  C_3 
REMARK    4  A    between atoms: CB_6  and  CG_7 
ROOT
ATOM      1  CG  TRP A   1       1.108  35.066 -10.259  1.00  0.00    -0.028 A 
ATOM      2  CD1 TRP A   1      -0.001  35.767 -10.626  1.00  0.00     0.096 A 
ATOM      3  CD2 TRP A   1       0.626  33.834  -9.667  1.00  0.00    -0.002 A 
ATOM      4  NE1 TRP A   1      -1.135  35.063 -10.302  1.00  0.00    -0.365 N 
ATOM      5  CE2 TRP A   1      -0.769  33.877  -9.717  1.00  0.00     0.042 A 
ATOM      6  CE3 TRP A   1       1.259  32.717  -9.109  1.00  0.00     0.014 A 
ATOM      7  CZ2 TRP A   1      -1.552  32.844  -9.227  1.00  0.00     0.030 A 
ATOM      8  CZ3 TRP A   1       0.474  31.681  -8.619  1.00  0.00     0.001 A 
ATOM      9  CH2 TRP A   1      -0.896  31.743  -8.677  1.00  0.00     0.002 A 
ATOM     10  HE1 TRP A   1      -2.083  35.367 -10.468  1.00  0.00     0.165 HD
ENDROOT
BRANCH   1  11
ATOM     11  CB  TRP A   1       2.535  35.488 -10.436  1.00  0.00     0.085 C 
BRANCH  11  12
ATOM     12  CA  TRP A   1       2.945  36.651  -9.531  1.00  0.00     0.287 C 
BRANCH  12  13
ATOM     13  C   TRP A   1       2.892  36.209  -8.074  1.00  0.00     0.204 C 
ATOM     14  OXT TRP A   1       2.154  36.761  -7.307  1.00  0.00    -0.646 OA
ATOM     15  O   TRP A   1       3.587  35.308  -7.695  1.00  0.00    -0.646 OA
ENDBRANCH  12  13
BRANCH  12  16
ATOM     16  N   TRP A   1       4.275  37.129  -9.889  1.00  0.00    -0.065 N 
ATOM     17  H1  TRP A   1       4.237  37.591 -10.775  1.00  0.00     0.275 HD
ATOM     18  H3  TRP A   1       4.905  36.354  -9.945  1.00  0.00     0.275 HD
ATOM     19  H2  TRP A   1       4.598  37.770  -9.193  1.00  0.00     0.275 HD
ENDBRANCH  12  16
ENDBRANCH  11  12
ENDBRANCH   1  11
TORSDOF 4
ENDMDL
MODEL 8
REMARK VINA RESULT:      -6.5      2.219      2.951
REMARK  4 active torsions:
REMARK  status: ('A' for Active; 'I' for Inactive)
REMARK    1  A    between atoms: N_1  and  CA_2 
REMARK    2  A    between atoms: CA_2  and  CB_6 
REMARK    3  A    between atoms: CA_2  and  C_3 
REMARK    4  A    between atoms: CB_6  and  CG_7 
ROOT
ATOM      1  CG  TRP A   1       0.600  34.907  -9.638  1.00  0.00    -0.028 A 
ATOM      2  CD1 TRP A   1      -0.472  35.127 -10.450  1.00  0.00     0.096 A 
ATOM      3  CD2 TRP A   1       0.885  36.176  -8.998  1.00  0.00    -0.002 A 
ATOM      4  NE1 TRP A   1      -0.871  36.439 -10.363  1.00  0.00    -0.365 N 
ATOM      5  CE2 TRP A   1      -0.053  37.093  -9.477  1.00  0.00     0.042 A 
ATOM      6  CE3 TRP A   1       1.847  36.597  -8.071  1.00  0.00     0.014 A 
ATOM      7  CZ2 TRP A   1      -0.062  38.416  -9.063  1.00  0.00     0.030 A 
ATOM      8  CZ3 TRP A   1       1.836  37.923  -7.656  1.00  0.00     0.001 A 
ATOM      9  CH2 TRP A   1       0.906  38.808  -8.139  1.00  0.00     0.002 A 
ATOM     10  HE1 TRP A   1      -1.641  36.854 -10.867  1.00  0.00     0.165 HD
ENDROOT
BRANCH   1  11
ATOM     11  CB  TRP A   1       1.331  33.613  -9.449  1.00  0.00     0.085 C 
BRANCH  11  12
ATOM     12  CA  TRP A   1       0.883  32.833  -8.212  1.00  0.00     0.287 C 
BRANCH  12  13
ATOM     13  C   TRP A   1      -0.285  31.925  -8.574  1.00  0.00     0.204 C 
ATOM     14  OXT TRP A   1      -0.161  31.107  -9.443  1.00  0.00    -0.646 OA
ATOM     15  O   TRP A   1      -1.328  32.027  -7.990  1.00  0.00    -0.646 OA
ENDBRANCH  12  13
BRANCH  12  16
ATOM     16  N   TRP A   1       1.996  32.068  -7.663  1.00  0.00    -0.065 N 
ATOM     17  H1  TRP A   1       2.403  32.569  -6.899  1.00  0.00     0.275 HD
ATOM     18  H3  TRP A   1       2.686  31.927  -8.373  1.00  0.00     0.275 HD
ATOM     19  H2  TRP A   1       1.666  31.181  -7.340  1.00  0.00     0.275 HD
ENDBRANCH  12  16
ENDBRANCH  11  12
ENDBRANCH   1  11
TORSDOF 4
ENDMDL
MODEL 9
REMARK VINA RESULT:      -6.5      2.093      2.823
REMARK  4 active torsions:
REMARK  status: ('A' for Active; 'I' for Inactive)
REMARK    1  A    between atoms: N_1  and  CA_2 
REMARK    2  A    between atoms: CA_2  and  CB_6 
REMARK    3  A    between atoms: CA_2  and  C_3 
REMARK    4  A    between atoms: CB_6  and  CG_7 
ROOT
ATOM      1  CG  TRP A   1       1.202  35.323  -9.830  1.00  0.00    -0.028 A 
ATOM      2  CD1 TRP A   1      -0.125  35.014  -9.885  1.00  0.00     0.096 A 
ATOM      3  CD2 TRP A   1       1.272  36.767  -9.719  1.00  0.00    -0.002 A 
ATOM      4  NE1 TRP A   1      -0.881  36.158  -9.819  1.00  0.00    -0.365 N 
ATOM      5  CE2 TRP A   1      -0.042  37.240  -9.715  1.00  0.00     0.042 A 
ATOM      6  CE3 TRP A   1       2.330  37.679  -9.624  1.00  0.00     0.014 A 
ATOM      7  CZ2 TRP A   1      -0.335  38.591  -9.620  1.00  0.00     0.030 A 
ATOM      8  CZ3 TRP A   1       2.036  39.033  -9.529  1.00  0.00     0.001 A 
ATOM      9  CH2 TRP A   1       0.738  39.477  -9.526  1.00  0.00     0.002 A 
ATOM     10  HE1 TRP A   1      -1.890  36.199  -9.842  1.00  0.00     0.165 HD
ENDROOT
BRANCH   1  11
ATOM     11  CB  TRP A   1       2.349  34.361  -9.876  1.00  0.00     0.085 C 
BRANCH  11  12
ATOM     12  CA  TRP A   1       2.916  34.021  -8.496  1.00  0.00     0.287 C 
BRANCH  12  13
ATOM     13  C   TRP A   1       4.366  34.480  -8.412  1.00  0.00     0.204 C 
ATOM     14  OXT TRP A   1       5.039  34.172  -7.468  1.00  0.00    -0.646 OA
ATOM     15  O   TRP A   1       4.836  35.151  -9.289  1.00  0.00    -0.646 OA
ENDBRANCH  12  13
BRANCH  12  16
ATOM     16  N   TRP A   1       2.107  34.632  -7.449  1.00  0.00    -0.065 N 
ATOM     17  H1  TRP A   1       1.140  34.436  -7.617  1.00  0.00     0.275 HD
ATOM     18  H3  TRP A   1       2.250  35.622  -7.451  1.00  0.00     0.275 HD
ATOM     19  H2  TRP A   1       2.373  34.260  -6.561  1.00  0.00     0.275 HD
ENDBRANCH  12  16
ENDBRANCH  11  12
ENDBRANCH   1  11
TORSDOF 4
ENDMDL
